<?xml version="1.0" encoding="UTF-8"?>
<!DOCTYPE transitSchedule SYSTEM "http://www.matsim.org/files/dtd/transitSchedule_v1.dtd">

<transitSchedule>
	<transitStops>
		<stopFacility id="1" x="990" y="990" linkRefId="11"/>
		<stopFacility id="2" x="1050" y="2030" linkRefId="22"/>
		<stopFacility id="4" x="2030" y="2020" linkRefId="44"/>
		<stopFacility id="3a" x="1980" y="990" linkRefId="13"/>
		<stopFacility id="3b" x="2050" y="1100" linkRefId="43"/>
		<stopFacility id="3c" x="1950" y="1100" linkRefId="32"/>
		<stopFacility id="5" x="2550" y="1530" linkRefId="55"/>
	</transitStops>

	<transitLine id="BlueLine">
		<transitRoute id="1to2">
			<transportMode>bus</transportMode>
			<routeProfile>
				<stop refId="1" arrivalOffset="00:00:00" departureOffset="00:00:00"/>
				<stop refId="3a" arrivalOffset="00:01:37" departureOffset="00:03:00"/>
				<stop refId="4" arrivalOffset="00:08:00" departureOffset="00:08:00"/>
			</routeProfile>
			<route>
				<link refId="11"/>
				<link refId="13"/>
				<link refId="34"/>
				<link refId="44"/>
			</route>
			<departures>
				<departure id="1" departureTime="06:10:00" vehicleRefId="tr_2" />
				<departure id="2" departureTime="06:30:00" vehicleRefId="tr_2" />
				<departure id="3" departureTime="06:50:00" vehicleRefId="tr_2" />
				<departure id="4" departureTime="07:10:00" vehicleRefId="tr_2" />
				<departure id="5" departureTime="07:30:00" vehicleRefId="tr_2" />
				<departure id="6" departureTime="07:50:00" vehicleRefId="tr_2" />
				<departure id="7" departureTime="08:10:00" vehicleRefId="tr_2" />
				<departure id="8" departureTime="08:30:00" vehicleRefId="tr_2" />
				<departure id="9" departureTime="08:50:00" vehicleRefId="tr_2" />
				<departure id="10" departureTime="09:10:00" vehicleRefId="tr_2" />
				<departure id="11" departureTime="09:30:00" vehicleRefId="tr_2" />
				<departure id="12" departureTime="09:50:00" vehicleRefId="tr_2" />
				<departure id="13" departureTime="10:10:00" vehicleRefId="tr_2" />
				<departure id="14" departureTime="10:30:00" vehicleRefId="tr_2" />
				<departure id="15" departureTime="10:50:00" vehicleRefId="tr_2" />
				<departure id="16" departureTime="11:10:00" vehicleRefId="tr_2" />
				<departure id="17" departureTime="11:30:00" vehicleRefId="tr_2" />
				<departure id="18" departureTime="11:50:00" vehicleRefId="tr_2" />
				<departure id="19" departureTime="12:10:00" vehicleRefId="tr_2" />
				<departure id="20" departureTime="12:30:00" vehicleRefId="tr_2" />
				<departure id="21" departureTime="12:50:00" vehicleRefId="tr_2" />
				<departure id="22" departureTime="13:10:00" vehicleRefId="tr_2" />
				<departure id="23" departureTime="13:30:00" vehicleRefId="tr_2" />
				<departure id="24" departureTime="13:50:00" vehicleRefId="tr_2" />
				<departure id="25" departureTime="14:10:00" vehicleRefId="tr_2" />
				<departure id="26" departureTime="14:30:00" vehicleRefId="tr_2" />
				<departure id="27" departureTime="14:50:00" vehicleRefId="tr_2" />
				<departure id="28" departureTime="15:10:00" vehicleRefId="tr_2" />
				<departure id="29" departureTime="15:30:00" vehicleRefId="tr_2" />
				<departure id="30" departureTime="15:50:00" vehicleRefId="tr_2" />
				<departure id="31" departureTime="16:10:00" vehicleRefId="tr_2" />
				<departure id="32" departureTime="16:30:00" vehicleRefId="tr_2" />
				<departure id="33" departureTime="16:50:00" vehicleRefId="tr_2" />
				<departure id="34" departureTime="17:10:00" vehicleRefId="tr_2" />
				<departure id="35" departureTime="17:30:00" vehicleRefId="tr_2" />
				<departure id="36" departureTime="17:50:00" vehicleRefId="tr_2" />
			</departures>
		</transitRoute>
		<transitRoute id="2to1">
			<transportMode>bus</transportMode>
			<routeProfile>
				<stop refId="4" arrivalOffset="00:00:00" departureOffset="00:00:00"/>
				<stop refId="3b" arrivalOffset="00:02:00" departureOffset="00:03:00"/>
				<stop refId="1" arrivalOffset="00:06:00" departureOffset="00:06:00"/>
			</routeProfile>
			<route>
				<link refId="44"/>
				<link refId="43"/>
				<link refId="31"/>
				<link refId="11"/>
			</route>
			<departures>
				<departure id="1" departureTime="06:00:00" vehicleRefId="tr_2" />
				<departure id="2" departureTime="06:20:00" vehicleRefId="tr_2" />
				<departure id="3" departureTime="06:40:00" vehicleRefId="tr_2" />
				<departure id="4" departureTime="07:00:00" vehicleRefId="tr_2" />
				<departure id="5" departureTime="07:20:00" vehicleRefId="tr_2" />
				<departure id="6" departureTime="07:40:00" vehicleRefId="tr_2" />
				<departure id="7" departureTime="08:00:00" vehicleRefId="tr_2" />
				<departure id="8" departureTime="08:20:00" vehicleRefId="tr_2" />
				<departure id="9" departureTime="08:40:00" vehicleRefId="tr_2" />
				<departure id="10" departureTime="09:00:00" vehicleRefId="tr_2" />
				<departure id="11" departureTime="09:20:00" vehicleRefId="tr_2" />
				<departure id="12" departureTime="09:40:00" vehicleRefId="tr_2" />
				<departure id="13" departureTime="10:00:00" vehicleRefId="tr_2" />
				<departure id="14" departureTime="10:20:00" vehicleRefId="tr_2" />
				<departure id="15" departureTime="10:40:00" vehicleRefId="tr_2" />
				<departure id="16" departureTime="11:00:00" vehicleRefId="tr_2" />
				<departure id="17" departureTime="11:20:00" vehicleRefId="tr_2" />
				<departure id="18" departureTime="11:40:00" vehicleRefId="tr_2" />
				<departure id="19" departureTime="12:00:00" vehicleRefId="tr_2" />
				<departure id="20" departureTime="12:20:00" vehicleRefId="tr_2" />
				<departure id="21" departureTime="12:40:00" vehicleRefId="tr_2" />
				<departure id="22" departureTime="13:00:00" vehicleRefId="tr_2" />
				<departure id="23" departureTime="13:20:00" vehicleRefId="tr_2" />
				<departure id="24" departureTime="13:40:00" vehicleRefId="tr_2" />
				<departure id="25" departureTime="14:00:00" vehicleRefId="tr_2" />
				<departure id="26" departureTime="14:20:00" vehicleRefId="tr_2" />
				<departure id="27" departureTime="14:40:00" vehicleRefId="tr_2" />
				<departure id="28" departureTime="15:00:00" vehicleRefId="tr_2" />
				<departure id="29" departureTime="15:20:00" vehicleRefId="tr_2" />
				<departure id="30" departureTime="15:40:00" vehicleRefId="tr_2" />
				<departure id="31" departureTime="16:00:00" vehicleRefId="tr_2" />
				<departure id="32" departureTime="16:20:00" vehicleRefId="tr_2" />
				<departure id="33" departureTime="16:40:00" vehicleRefId="tr_2" />
				<departure id="34" departureTime="17:00:00" vehicleRefId="tr_2" />
				<departure id="35" departureTime="17:20:00" vehicleRefId="tr_2" />
				<departure id="36" departureTime="17:40:00" vehicleRefId="tr_2" />
			</departures>
		</transitRoute>
	</transitLine>

	<transitLine id="RedLine">
		<transitRoute id="5to3">
			<transportMode>train</transportMode>
			<routeProfile>
				<stop refId="5" arrivalOffset="00:00:00" departureOffset="00:00:00"/>
				<stop refId="3c" arrivalOffset="00:00:50" departureOffset="00:02:50"/>
				<stop refId="2" arrivalOffset="00:10:02" departureOffset="00:10:02"/>
			</routeProfile>
			<route>
				<link refId="55"/>
				<link refId="53"/>
				<link refId="32"/>
				<link refId="22"/>
			</route>
			<departures>
				<departure id="1" departureTime="08:30:00" vehicleRefId="tr_1" />
				<departure id="2" departureTime="10:30:00" vehicleRefId="tr_1" />
				<departure id="3" departureTime="12:30:00" vehicleRefId="tr_1" />
				<departure id="4" departureTime="14:30:00" vehicleRefId="tr_1" />
				<departure id="5" departureTime="16:30:00" vehicleRefId="tr_1" />
				<departure id="6" departureTime="18:30:00" vehicleRefId="tr_1" />
				<departure id="7" departureTime="20:00:00" vehicleRefId="tr_1" />
			</departures>
		</transitRoute>
	</transitLine>

</transitSchedule>

